                                   MODFLOW 6
                U.S. GEOLOGICAL SURVEY MODULAR HYDROLOGIC MODEL
                   VERSION 6.3.0 release candidate 02/06/2022
                               ***DEVELOP MODE***

   MODFLOW 6 compiled Feb 06 2022 02:35:51 with Intel(R) Fortran Intel(R) 64
   Compiler Classic for applications running on Intel(R) 64, Version 2021.5.0
                             Build 20211109_000000

This software is preliminary or provisional and is subject to 
revision. It is being provided to meet the need for timely best 
science. The software has not received final approval by the U.S. 
Geological Survey (USGS). No warranty, expressed or implied, is made 
by the USGS or the U.S. Government as to the functionality of the 
software and related material nor shall the fact of release 
constitute any such warranty. The software is provided on the 
condition that neither the USGS nor the U.S. Government shall be held 
liable for any damages resulting from the authorized or unauthorized 
use of the software.


As a work of the United States Government, this USGS product is 
in the public domain within the United States. You can copy, 
modify, distribute, and perform the work, even for commercial 
purposes, all without asking permission. Additionally, USGS 
waives copyright and related rights in the work worldwide 
through CC0 1.0 Universal Public Domain Dedication 
(https://creativecommons.org/publicdomain/zero/1.0/).

The following GNU Lesser General Public License (LGPL) libraries
are used in this USGS product:

    SPARSKIT version 2.0
      ilut, luson, and qsplit 
      (https://www-users.cse.umn.edu/~saad/software/SPARSKIT/)

    RCM - Reverse Cuthill McKee Ordering
      (https://people.math.sc.edu/Burkardt/f_src/rcm/rcm.html)

    BLAS - Basic Linear Algebra Subprograms Level 1
      (https://people.math.sc.edu/Burkardt/f_src/blas1_d/blas1_d.html)

    SPARSEKIT - Sparse Matrix Utility Package
      amux, dperm, dvperm, rperm, and cperm
      (https://people.sc.fsu.edu/~jburkardt/f77_src/sparsekit/sparsekit.html)

The following BSD-3 License libraries are used in this USGS product:

    Modern Fortran DAG Library
      Copyright (c) 2018, Jacob Williams
      All rights reserved.
      (https://github.com/jacobwilliams/daglib)

MODFLOW 6 compiler options: /O2 /heap-arrays:0 /fpe:0 /traceback /nologo /fpp
/c /module:.\mod_temp\ /object:.\obj_temp\

System command used to initiate simulation:
C:\Users\tfo46\e_Python\a_rbm\rapid-gwm-build\examples\bin\mf6.exe

MODFLOW was compiled using uniform precision.

Real Variables
  KIND: 8
  TINY (smallest non-zero value):    2.225074-308
  HUGE (largest value):    1.797693+308
  PRECISION: 15
  BIT SIZE: 64

Integer Variables
  KIND: 4
  HUGE (largest value): 2147483647
  BIT SIZE: 32

Long Integer Variables
  KIND: 8
  HUGE (largest value): 9223372036854775807
  BIT SIZE: 64

Logical Variables
  KIND: 4
  BIT SIZE: 32
 

 OPENED mfsim.nam
 FILE TYPE:NAM   UNIT 1001   STATUS:OLD                 
 FORMAT:FORMATTED              ACCESS:SEQUENTIAL          
 ACTION:READ                

 # File generated by Flopy version 3.9.2 on 05/23/2025 at 14:32:09.

 READING SIMULATION OPTIONS
 END OF SIMULATION OPTIONS

 READING SIMULATION TIMING

 OPENED freyberg6_simple.tdis
 FILE TYPE:TDIS   UNIT 1002   STATUS:OLD                 
 FORMAT:FORMATTED              ACCESS:SEQUENTIAL          
 ACTION:READ                


 TDIS -- TEMPORAL DISCRETIZATION PACKAGE,
 VERSION 1 : 11/13/2014 - INPUT READ FROM UNIT 1002
 # File generated by Flopy version 3.9.2 on 05/23/2025 at 14:32:09.
 PROCESSING TDIS OPTIONS
    SIMULATION TIME UNIT IS DAYS
    SIMULATION STARTING DATE AND TIME IS 2020-01-01                    
 END OF TDIS OPTIONS
 PROCESSING TDIS DIMENSIONS
   25 STRESS PERIOD(S) IN SIMULATION
 END OF TDIS DIMENSIONS
 PROCESSING TDIS PERIODDATA


 STRESS PERIOD     LENGTH       TIME STEPS     MULTIPLIER FOR DELT
 ----------------------------------------------------------------------------
        1         3652.500          1                    1.000
        2         31.00000          1                    1.000
        3         29.00000          1                    1.000
        4         31.00000          1                    1.000
        5         30.00000          1                    1.000
        6         31.00000          1                    1.000
        7         30.00000          1                    1.000
        8         31.00000          1                    1.000
        9         31.00000          1                    1.000
       10         30.00000          1                    1.000
       11         31.00000          1                    1.000
       12         30.00000          1                    1.000
       13         31.00000          1                    1.000
       14         31.00000          1                    1.000
       15         28.00000          1                    1.000
       16         31.00000          1                    1.000
       17         30.00000          1                    1.000
       18         31.00000          1                    1.000
       19         30.00000          1                    1.000
       20         31.00000          1                    1.000
       21         31.00000          1                    1.000
       22         30.00000          1                    1.000
       23         31.00000          1                    1.000
       24         30.00000          1                    1.000
       25         31.00000          1                    1.000
 END OF TDIS PERIODDATA
 END OF SIMULATION TIMING

 READING SIMULATION MODELS
    GWF6 model FREYBURG6 will be created as model 1
 END OF SIMULATION MODELS

 READING SIMULATION EXCHANGES
 END OF SIMULATION EXCHANGES

 READING SOLUTIONGROUP

 Creating solution: SLN_1           

 OPENED freyberg6_simple.ims
 FILE TYPE:IMS   UNIT 1014   STATUS:OLD                 
 FORMAT:FORMATTED              ACCESS:SEQUENTIAL          
 ACTION:READ                

 END OF SIMULATION SOLUTIONGROUP

PROCESSING MODEL CONNECTIONS

 IMS -- ITERATIVE MODEL SOLUTION PACKAGE, VERSION 6, 4/28/2017
         INPUT READ FROM UNIT 1014
 # File generated by Flopy version 3.9.2 on 05/23/2025 at 14:32:09.

 PROCESSING IMS OPTIONS
 COMPLEX OPTION:
 DEFAULT SOLVER INPUT VALUES REFLECT STRONGLY NONLINEAR MODEL
 END OF IMS OPTIONS
 **UNDER-RELAXATION WILL BE USED***
 
 ***IMS LINEAR SOLVER WILL BE USED***

 IMSLINEAR -- UNSTRUCTURED LINEAR SOLUTION PACKAGE, VERSION 8, 04/28/2017
 
 An asymmetric matrix will be solved

 OUTER ITERATION CONVERGENCE CRITERION    (DVCLOSE) =    0.100000E+00
 MAXIMUM NUMBER OF OUTER ITERATIONS        (MXITER) = 100
 SOLVER PRINTOUT INDEX                     (IPRIMS) = 1
 NONLINEAR ITERATION METHOD            (NONLINMETH) = 3
 LINEAR SOLUTION METHOD                   (LINMETH) = 1
 UNDER-RELAXATION WEIGHT REDUCTION FACTOR   (THETA) =    0.800000E+00
 UNDER-RELAXATION WEIGHT INCREASE INCREMENT (KAPPA) =    0.100000E-03
 UNDER-RELAXATION PREVIOUS HISTORY FACTOR   (GAMMA) =    0.000000E+00
 UNDER-RELAXATION MOMENTUM TERM         (AMOMENTUM) =    0.000000E+00
 MAXIMUM NUMBER OF BACKTRACKS            (NUMTRACK) = 20
 BACKTRACKING TOLERANCE FACTOR               (BTOL) =    0.105000E+01
 BACKTRACKING REDUCTION FACTOR             (BREDUC) =    0.100000E+00
 BACKTRACKING RESIDUAL LIMIT              (RES_LIM) =    0.200000E-02

       SOLUTION BY THE BICONJUGATE-GRADIENT STABILIZED METHOD
 ------------------------------------------------------------------
 MAXIMUM OF 100 CALLS OF SOLUTION ROUTINE
 MAXIMUM OF 500 INTERNAL ITERATIONS PER CALL TO SOLUTION ROUTINE
 LINEAR ACCELERATION METHOD            = BCGS      
 MATRIX PRECONDITIONING TYPE           = INCOMPLETE LUT      
 MATRIX SCALING APPROACH               = NO SCALING          
 MATRIX REORDERING APPROACH            = ORIGINAL ORDERING        
 NUMBER OF ORTHOGONALIZATIONS          = 2
 HEAD CHANGE CRITERION FOR CLOSURE     =    0.10000E+00
 RESIDUAL CHANGE CRITERION FOR CLOSURE =    0.10000E+00
 RESIDUAL CONVERGENCE OPTION           = 0
 RESIDUAL CONVERGENCE NORM             = INFINITY NORM   
 RELAXATION FACTOR                     =    0.00000E+00
 NUMBER OF LEVELS                      =              5
 DROP TOLERANCE                        =    0.10000E-03


 
    Solving:  Stress period:     1    Time step:     1
 
1
                            STRESS PERIOD NO. 1, LENGTH =   3652.500    
                            -----------------------------------------------
                            NUMBER OF TIME STEPS = 1
                            MULTIPLIER FOR DELT =     1.000
                            INITIAL TIME STEP SIZE =   3652.500    

 SLN_1 OUTER ITERATION SUMMARY
 ----------------------------------------------------------------------------------------------------------------------------------------------------------------
                                OUTER      INNER  BACKTRACK  BACKTRACK        INCOMING        OUTGOING                    STEP   MAXIMUM CHANGE MODEL-(CELLID) OR
 OUTER ITERATION STEP       ITERATION  ITERATION       FLAG ITERATIONS        RESIDUAL        RESIDUAL  MAXIMUM CHANGE SUCCESS             MODEL-PACKAGE-(NUMBER)
 ----------------------------------------------------------------------------------------------------------------------------------------------------------------
 Backtracking                       1                     0          0       1040.8477       1040.8477                       *                                   
 Model                              1          7                                                            -26.880981                             1_GWF-(1,25,5)
 Backtracking                       2                     0          0       654.69673       654.69673                       *                                   
 Model                              2          5                                                            -39.824568                             1_GWF-(1,25,5)
 Backtracking                       3                     0          0       472.77531       472.77531                       *                                   
 Model                              3          7                                                             24.742203                             1_GWF-(1,20,4)
 Backtracking                       4                     0          0       421.54018       421.54018                       *                                   
 Model                              4          7                                                            -20.382121                            1_GWF-(1,17,16)
 Backtracking                       5                     1          1       520.52006       373.87978                                                           
 Model                              5          7                                                             15.610383                             1_GWF-(1,30,6)
 Backtracking                       6                     0          0       383.70646       383.70646                       *                                   
 Model                              6          7                                                            -9.4883014                            1_GWF-(1,21,15)
 Backtracking                       7                     0          0       322.73936       322.73936                       *                                   
 Model                              7          6                                                             15.001832                            1_GWF-(1,22,15)
 Backtracking                       8                     1          1       482.69416       283.54935                                                           
 Model                              8          7                                                             20.429899                            1_GWF-(1,20,15)
 Backtracking                       9                     1          1       816.08011       263.22775                                                           
 Model                              9          7                                                             18.949512                            1_GWF-(1,20,15)
 Backtracking                      10                     1          1       808.70793       259.01679                                                           
 Model                             10          7                                                             17.574430                            1_GWF-(1,20,15)
 Backtracking                      11                     1          1       799.86069       268.77841                                                           
 Model                             11          7                                                             16.295149                            1_GWF-(1,20,15)
 Backtracking                      12                     1          2       789.46459       270.26849                                                           
 Model                             12          7                                                             16.176467                            1_GWF-(1,20,15)
 Backtracking                      13                     1          2       788.32559       271.84272                                                           
 Model                             13          7                                                             16.058731                            1_GWF-(1,20,15)
 Backtracking                      14                     1          2       787.18158       273.49719                                                           
 Model                             14          7                                                             15.941835                            1_GWF-(1,20,15)
 Backtracking                      15                     1          2       786.02601       275.22806                                                           
 Model                             15          7                                                             15.825759                            1_GWF-(1,20,15)
 Backtracking                      16                     1          2       784.85741       277.03154                                                           
 Model                             16          7                                                             15.710478                            1_GWF-(1,20,15)
 Backtracking                      17                     1          2       783.67377       278.90388                                                           
 Model                             17          7                                                             15.596198                            1_GWF-(1,20,15)
 Backtracking                      18                     1          2       782.50317       280.84159                                                           
 Model                             18          7                                                             15.482494                            1_GWF-(1,20,15)
 Backtracking                      19                     1          2       781.28994       282.84084                                                           
 Model                             19          7                                                             15.369549                            1_GWF-(1,20,15)
 Backtracking                      20                     1          2       780.05994       284.89807                                                           
 Model                             20          7                                                             15.257364                            1_GWF-(1,20,15)
 Backtracking                      21                     1          2       778.81383       287.00981                                                           
 Model                             21          7                                                             15.146004                            1_GWF-(1,20,15)
 Backtracking                      22                     1          2       777.56166       289.17272                                                           
 Model                             22          7                                                             15.035365                            1_GWF-(1,20,15)
 Backtracking                      23                     1          2       776.28957       291.38349                                                           
 Model                             23          7                                                             14.925458                            1_GWF-(1,20,15)
 Backtracking                      24                     1          2       775.00041       293.63891                                                           
 Model                             24          7                                                             14.816321                            1_GWF-(1,20,15)
 Backtracking                      25                     1          2       773.69960       295.93589                                                           
 Model                             25          7                                                             14.707957                            1_GWF-(1,20,15)
 Backtracking                      26                     1          2       772.38811       298.27144                                                           
 Model                             26          7                                                             14.600338                            1_GWF-(1,20,15)
 Backtracking                      27                     1          2       771.06230       300.64264                                                           
 Model                             27          7                                                             14.493474                            1_GWF-(1,20,15)
 Backtracking                      28                     1          2       769.72588       303.04668                                                           
 Model                             28          7                                                             14.387429                            1_GWF-(1,20,15)
 Backtracking                      29                     1          2       768.38728       305.48093                                                           
 Model                             29          7                                                             14.282147                            1_GWF-(1,20,15)
 Backtracking                      30                     1          2       767.03994       307.94278                                                           
 Model                             30          7                                                             14.177620                            1_GWF-(1,20,15)
 Backtracking                      31                     1          2       765.68397       310.42973                                                           
 Model                             31          7                                                             14.073842                            1_GWF-(1,20,15)
 Backtracking                      32                     1          2       764.31939       312.93938                                                           
 Model                             32          7                                                             13.970805                            1_GWF-(1,20,15)
 Backtracking                      33                     1          2       762.94619       315.46940                                                           
 Model                             33          7                                                             13.868503                            1_GWF-(1,20,15)
 Backtracking                      34                     1          2       761.56433       318.01758                                                           
 Model                             34          7                                                             13.766926                            1_GWF-(1,20,15)
 Backtracking                      35                     1          2       760.17381       320.58176                                                           
 Model                             35          7                                                             13.667390                            1_GWF-(1,20,15)
 Backtracking                      36                     1          2       758.92613       323.16088                                                           
 Model                             36          7                                                             13.567456                            1_GWF-(1,20,15)
 Backtracking                      37                     1          2       757.54336       325.75215                                                           
 Model                             37          7                                                             13.468296                            1_GWF-(1,20,15)
 Backtracking                      38                     1          2       756.15975       328.35375                                                           
 Model                             38          7                                                             13.369936                            1_GWF-(1,20,15)
 Backtracking                      39                     1          2       754.77904       330.96394                                                           
 Model                             39          7                                                             13.272422                            1_GWF-(1,20,15)
 Backtracking                      40                     1          2       753.40701       333.58110                                                           
 Model                             40          7                                                             13.175831                            1_GWF-(1,20,15)
 Backtracking                      41                     1          2       752.05279       336.20376                                                           
 Model                             41          7                                                             13.080293                            1_GWF-(1,20,15)
 Backtracking                      42                     1          2       750.73105       338.83062                                                           
 Model                             42          7                                                             12.986029                            1_GWF-(1,20,15)
 Backtracking                      43                     1          2       749.46612       341.46063                                                           
 Model                             43          7                                                             12.893427                            1_GWF-(1,20,15)
 Backtracking                      44                     1          2       748.29938       344.09308                                                           
 Model                             44          7                                                             12.803172                            1_GWF-(1,20,15)
 Backtracking                      45                     1          2       747.30267       346.72785                                                           
 Model                             45          7                                                             12.716452                            1_GWF-(1,20,15)
 Backtracking                      46                     1          2       746.59825       349.36578                                                           
 Model                             46          7                                                             12.595464                            1_GWF-(1,20,15)
 Backtracking                      47                     1          2       742.12383       351.97897                                                           
 Model                             47          7                                                             12.501988                            1_GWF-(1,20,15)
 Backtracking                      48                     1          2       740.55404       354.58677                                                           
 Model                             48          7                                                             12.409178                            1_GWF-(1,20,15)
 Backtracking                      49                     4          1       738.98169       381.98426                                                           
 Model                             49          7                                                             11.491997                            1_GWF-(1,20,15)
 Backtracking                      50                     4          1       723.91885       407.84866                                                           
 Model                             50          8                                                             10.639460                            1_GWF-(1,20,15)
 Backtracking                      51                     4          1       708.41907       431.57276                                                           
 Model                             51          8                                                             9.8760210                            1_GWF-(1,20,15)
 Backtracking                      52                     1          1       695.14524       453.06070                                                           
 Model                             52          8                                                             9.2667898                            1_GWF-(1,20,15)
 Backtracking                      53                     1          1       689.92561       472.87493                                                           
 Model                             53         10                                                             8.4119928                            1_GWF-(1,20,15)
 Backtracking                      54                     1          1       657.27373       488.62776                                                           
 Model                             54         10                                                             8.1258729                             1_GWF-(1,24,7)
 Backtracking                      55                     1          1       641.29220       501.87329                                                           
 Model                             55         11                                                             7.8965971                             1_GWF-(1,24,7)
 Backtracking                      56                     1          1       625.16662       512.70179                                                           
 Model                             56          7                                                             7.5962890                             1_GWF-(1,24,7)
 Backtracking                      57                     1          1       601.37530       520.54356                                                           
 Model                             57          7                                                             7.4010428                             1_GWF-(1,24,7)
 Backtracking                      58                     1          1       587.81875       526.51732                                                           
 Model                             58          8                                                             7.1634974                             1_GWF-(1,24,7)
 Backtracking                      59                     1          1       569.19126       530.28186                                                           
 Model                             59          8                                                             6.9529364                             1_GWF-(1,24,7)
 Backtracking                      60                     0          0       553.43854       553.43854                       *                                   
 Model                             60          9                                                             4.9144498                             1_GWF-(1,24,7)
 Backtracking                      61                     0          0       397.01221       397.01221                       *                                   
 Model                             61          7                                                             3.3616530                             1_GWF-(1,24,7)
 Backtracking                      62                     0          0       274.94867       274.94867                       *                                   
 Model                             62          5                                                             2.3337955                             1_GWF-(1,24,7)
 Backtracking                      63                     0          0       206.25895       206.25895                       *                                   
 Model                             63          5                                                             1.6965634                             1_GWF-(1,24,7)
 Backtracking                      64                     0          0       170.44205       170.44205                       *                                   
 Model                             64          5                                                             1.2618783                             1_GWF-(1,24,7)
 Backtracking                      65                     0          0       149.27623       149.27623                       *                                   
 Model                             65          5                                                            0.96507286                             1_GWF-(1,24,7)
 Backtracking                      66                     0          0       136.08763       136.08763                       *                                   
 Model                             66          5                                                            0.85318185                             1_GWF-(1,20,4)
 Backtracking                      67                     0          0       127.55090       127.55090                       *                                   
 Model                             67          5                                                            0.78843226                             1_GWF-(1,20,4)
 Backtracking                      68                     0          0       121.71101       121.71101                       *                                   
 Model                             68          5                                                            0.67303232                             1_GWF-(1,20,4)
 Backtracking                      69                     0          0       113.33209       113.33209                       *                                   
 Model                             69          5                                                            0.61116808                             1_GWF-(1,20,4)
 Backtracking                      70                     0          0       107.34936       107.34936                       *                                   
 Model                             70          5                                                            0.56985088                             1_GWF-(1,20,4)
 Backtracking                      71                     0          0       103.36486       103.36486                       *                                   
 Model                             71          3                                                            0.42086225                             1_GWF-(1,2,16)
 Backtracking                      72                     0          0       89.656955       89.656955                       *                                   
 Model                             72          5                                                            0.55472084                             1_GWF-(1,20,4)
 Backtracking                      73                     4          0       95.281082       95.281082                       *                                   
 Model                             73          3                                                            0.38716189                             1_GWF-(1,2,16)
 Backtracking                      74                     0          0       83.802809       83.802809                       *                                   
 Model                             74          5                                                            0.48247802                             1_GWF-(1,20,4)
 Backtracking                      75                     0          0       82.166483       82.166483                       *                                   
 Model                             75          3                                                            0.34368981                             1_GWF-(1,2,16)
 Backtracking                      76                     0          0       76.299146       76.299146                       *                                   
 Model                             76          5                                                            0.45898315                             1_GWF-(1,20,4)
 Backtracking                      77                     0          0       77.288207       77.288207                       *                                   
 Model                             77          3                                                            0.32056298                             1_GWF-(1,20,4)
 Backtracking                      78                     0          0       72.872075       72.872075                       *                                   
 Model                             78          3                                                            0.31202776                             1_GWF-(1,20,4)
 Backtracking                      79                     0          0       68.463407       68.463407                       *                                   
 Model                             79          3                                                            0.30678592                             1_GWF-(1,20,4)
 Backtracking                      80                     0          0       66.163046       66.163046                       *                                   
 Model                             80          3                                                            0.30205840                             1_GWF-(1,20,4)
 Backtracking                      81                     0          0       64.570622       64.570622                       *                                   
 Model                             81          3                                                            0.29739804                             1_GWF-(1,20,4)
 Backtracking                      82                     0          0       63.278664       63.278664                       *                                   
 Model                             82          3                                                            0.29291533                             1_GWF-(1,19,4)
 Backtracking                      83                     0          0       62.146536       62.146536                       *                                   
 Model                             83          3                                                            0.28880213                             1_GWF-(1,19,4)
 Backtracking                      84                     0          0       61.117229       61.117229                       *                                   
 Model                             84          3                                                            0.28494046                             1_GWF-(1,19,4)
 Backtracking                      85                     0          0       60.166197       60.166197                       *                                   
 Model                             85          3                                                            0.28152710                             1_GWF-(1,19,4)
 Backtracking                      86                     0          0       59.281581       59.281581                       *                                   
 Model                             86          3                                                            0.27833183                             1_GWF-(1,19,4)
 Backtracking                      87                     0          0       58.449853       58.449853                       *                                   
 Model                             87          3                                                            0.26582474                             1_GWF-(1,19,4)
 Backtracking                      88                     0          0       57.058415       57.058415                       *                                   
 Model                             88          3                                                            0.24805905                             1_GWF-(1,19,4)
 Backtracking                      89                     0          0       55.206963       55.206963                       *                                   
 Model                             89          3                                                            0.22875277                             1_GWF-(1,19,4)
 Backtracking                      90                     0          0       52.447340       52.447340                       *                                   
 Model                             90          2                                                            0.20014086                             1_GWF-(1,2,16)
 Backtracking                      91                     0          0       49.545377       49.545377                       *                                   
 Model                             91          3                                                            0.21509413                             1_GWF-(1,19,4)
 Backtracking                      92                     0          0       48.922802       48.922802                       *                                   
 Model                             92          2                                                            0.18657109                             1_GWF-(1,2,16)
 Backtracking                      93                     0          0       46.761497       46.761497                       *                                   
 Model                             93          3                                                            0.20854342                             1_GWF-(1,19,1)
 Backtracking                      94                     0          0       46.631082       46.631082                       *                                   
 Model                             94          2                                                            0.17476501                             1_GWF-(1,2,16)
 Backtracking                      95                     0          0       44.670948       44.670948                       *                                   
 Model                             95          3                                                            0.20259943                             1_GWF-(1,19,1)
 Backtracking                      96                     0          0       44.669022       44.669022                       *                                   
 Model                             96          2                                                            0.16451486                             1_GWF-(1,2,16)
 Backtracking                      97                     0          0       42.980617       42.980617                       *                                   
 Model                             97          3                                                            0.19978662                             1_GWF-(1,19,1)
 Backtracking                      98                     0          0       43.140298       43.140298                       *                                   
 Model                             98          2                                                            0.15545488                             1_GWF-(1,2,16)
 Backtracking                      99                     0          0       41.336111       41.336111                       *                                   
 Model                             99          3                                                            0.19534914                             1_GWF-(1,19,1)
 Backtracking                     100                     0          0       41.728364       41.728364                       *                                   
 Model                            100          2                                                            0.14790579                             1_GWF-(1,2,16)
 ----------------------------------------------------------------------------------------------------------------------------------------------------------------


 Solution 1 did not converge for stress period 1 and time step 1
 Solution Group 1 did not converge for stress period 1 and time step 1
 Simulation convergence failure. Simulation will terminate after output and deallocation.


 Solution SLN_1 summary
 ----------------------------------------------------------------------
 Total formulate time:  .000000000000000 seconds
 Total solution time:   .3125000000000000E-01 seconds


 MEMORY MANAGER TOTAL STORAGE BY DATA TYPE, IN KILOBYTES
 -------------------------------
                    ALLOCATED   
 DATA TYPE           MEMORY     
 -------------------------------
 Character        5.7330000     
 Logical          4.40000000E-02
 Integer          207.51600     
 Real             399.47200     
 -------------------------------
 Total            612.76500     
 -------------------------------


 
 Run end date and time (yyyy/mm/dd hh:mm:ss): 2025/05/23 14:32:39
 Elapsed run time:  0.288 Seconds

ERROR REPORT:

  1.  Simulation convergence failure occurred 1 time(s).
 Premature termination of simulation.
 Premature termination of simulation.
